
**** 05/03/19 11:11:23 ****** PSpice Lite (October 2012) ****** ID# 10813 ****

 *--------------------------------------


 ****     CIRCUIT DESCRIPTION


******************************************************************************



* INPUT FILE - 500MHz LDL - CHEBY
*                                     -
* Author: De Bels S. en Steeman P-J.  -
* Date: 5 april 2018                  -
*--------------------------------------

*--------- INPUT SOURCE (Vin moet in commentaar bij stapsresponsie) --------------------------*
*
Vin 1 0 AC 1V
*--------- MODELS for passive components ---------
*
*NL = L/lamda = (lamda/8)/lamda = 1/8

R1      1       2       50OHM
C1      2       0       7.52pF
L1      2       3       22.64nH
C2      3       0       13.35pF
L2      3       4       25.04nH
C3      4       0       13.35pF
L3      4       5       22.64nH
C4      5       0       7.52pF
R2      5       0       50OHM

*--------- ANALYSIS ------------------------------*
*
.AC DEC 1000 10MHZ 100GHZ
*
*--------- RESULTS -------------------------------*
*
.PROBE
 
.END

**** 05/03/19 11:11:23 ****** PSpice Lite (October 2012) ****** ID# 10813 ****

 *--------------------------------------


 ****     SMALL SIGNAL BIAS SOLUTION       TEMPERATURE =   27.000 DEG C


******************************************************************************



 NODE   VOLTAGE     NODE   VOLTAGE     NODE   VOLTAGE     NODE   VOLTAGE


(    1)    0.0000  (    2)    0.0000  (    3)    0.0000  (    4)    0.0000      

(    5)    0.0000  




    VOLTAGE SOURCE CURRENTS
    NAME         CURRENT

    Vin          0.000E+00

    TOTAL POWER DISSIPATION   0.00E+00  WATTS



          JOB CONCLUDED

**** 05/03/19 11:11:23 ****** PSpice Lite (October 2012) ****** ID# 10813 ****

 *--------------------------------------


 ****     JOB STATISTICS SUMMARY


******************************************************************************



  Total job time (using Solver 1)   =         .17

**** 05/03/19 11:11:23 ****** PSpice Lite (October 2012) ****** ID# 10813 ****

  


 ****     CIRCUIT DESCRIPTION


******************************************************************************



