
**** 04/05/19 11:32:47 ****** PSpice Lite (October 2012) ****** ID# 10813 ****

 *--------------------------------------


 ****     CIRCUIT DESCRIPTION


******************************************************************************



* INPUT FILE - MICROSTRIP FILTER
*                                     -
* Author: De Bels S. en Steeman P-J.  -
* Date: 5 april 2018                  -
*--------------------------------------
.func RefCoeff(r1,z0) {(r1-z0)/(r1+z0)}
.func VSWR(rc) {(1+abs(rc))/(1-abs(rc))}

*--------- INPUT SOURCE (Vin moet in commentaar bij stapsresponsie) --------------------------*
*
Vin 1 0 AC 1V
*--------- MODELS for passive components ---------
*
*NL = L/lamda = (lamda/8)/lamda = 1/8

T1 1 0 2 0 Z0=50OHM (F=1000MEGHZ (NL=0.125))    
T2 2 0 3 0 Z0=50OHM (F=1000MEGHZ (NL=0.125))
T3 3 0 4 0 Z0=50OHM (F=1000MEGHZ (NL=0.125))
T4 4 0 5 0 Z0=50OHM (F=1000MEGHZ (NL=0.125))
T5 5 0 6 0 Z0=50OHM (F=1000MEGHZ (NL=0.125))
T6 6 0 7 0 Z0=50OHM (F=1000MEGHZ (NL=0.125))
T7 7 0 8 0 Z0=50OHM (F=1000MEGHZ (NL=0.125))
T8 8 0 9 0 Z0=50OHM (F=1000MEGHZ (NL=0.125))

R1 9 0 100OHM

*--------- ANALYSIS ------------------------------*
*
.AC DEC 1 1GHZ 1GHZ
*
*--------- RESULTS -------------------------------*
*
.PRINT AC V(1) V(2) V(3) V(4) V(5) V(6) V(7) V(8) V(9)
.PRINT AC VP(1) VP(2) VP(3) VP(4) VP(5) VP(6) VP(7) VP(8) VP(9)
.PRINT AC VR(1) VR(2) VR(3) VR(4) VR(5) VR(6) VR(7) VR(8) VR(9)
 
.END

**** 04/05/19 11:32:47 ****** PSpice Lite (October 2012) ****** ID# 10813 ****

 *--------------------------------------


 ****     SMALL SIGNAL BIAS SOLUTION       TEMPERATURE =   27.000 DEG C


******************************************************************************



 NODE   VOLTAGE     NODE   VOLTAGE     NODE   VOLTAGE     NODE   VOLTAGE


(    1)    0.0000  (    2)    0.0000  (    3)    0.0000  (    4)    0.0000      

(    5)    0.0000  (    6)    0.0000  (    7)    0.0000  (    8)    0.0000      

(    9)    0.0000  




    VOLTAGE SOURCE CURRENTS
    NAME         CURRENT

    Vin          0.000E+00

    TOTAL POWER DISSIPATION   0.00E+00  WATTS


**** 04/05/19 11:32:47 ****** PSpice Lite (October 2012) ****** ID# 10813 ****

 *--------------------------------------


 ****     AC ANALYSIS                      TEMPERATURE =   27.000 DEG C


******************************************************************************



  FREQ        V(1)        V(2)        V(3)        V(4)        V(5)        


   1.000E+09   1.000E+00   7.906E-01   5.000E-01   7.906E-01   1.000E+00

**** 04/05/19 11:32:47 ****** PSpice Lite (October 2012) ****** ID# 10813 ****

 *--------------------------------------


 ****     AC ANALYSIS                      TEMPERATURE =   27.000 DEG C


******************************************************************************



  FREQ        V(6)        V(7)        V(8)        V(9)        


   1.000E+09   7.906E-01   5.000E-01   7.906E-01   1.000E+00

**** 04/05/19 11:32:47 ****** PSpice Lite (October 2012) ****** ID# 10813 ****

 *--------------------------------------


 ****     AC ANALYSIS                      TEMPERATURE =   27.000 DEG C


******************************************************************************



  FREQ        VP(1)       VP(2)       VP(3)       VP(4)       VP(5)       


   1.000E+09   0.000E+00  -2.657E+01  -9.000E+01  -1.534E+02   1.800E+02

**** 04/05/19 11:32:47 ****** PSpice Lite (October 2012) ****** ID# 10813 ****

 *--------------------------------------


 ****     AC ANALYSIS                      TEMPERATURE =   27.000 DEG C


******************************************************************************



  FREQ        VP(6)       VP(7)       VP(8)       VP(9)       


   1.000E+09   1.534E+02   9.000E+01   2.657E+01  -3.181E-15

**** 04/05/19 11:32:47 ****** PSpice Lite (October 2012) ****** ID# 10813 ****

 *--------------------------------------


 ****     AC ANALYSIS                      TEMPERATURE =   27.000 DEG C


******************************************************************************



  FREQ        VR(1)       VR(2)       VR(3)       VR(4)       VR(5)       


   1.000E+09   1.000E+00   7.071E-01   2.500E-11  -7.071E-01  -1.000E+00

**** 04/05/19 11:32:47 ****** PSpice Lite (October 2012) ****** ID# 10813 ****

 *--------------------------------------


 ****     AC ANALYSIS                      TEMPERATURE =   27.000 DEG C


******************************************************************************



  FREQ        VR(6)       VR(7)       VR(8)       VR(9)       


   1.000E+09  -7.071E-01  -2.500E-11   7.071E-01   1.000E+00


          JOB CONCLUDED

**** 04/05/19 11:32:47 ****** PSpice Lite (October 2012) ****** ID# 10813 ****

 *--------------------------------------


 ****     JOB STATISTICS SUMMARY


******************************************************************************



  Total job time (using Solver 1)   =         .03
